data_IT023_BR_phase_
_audit_creation_method	'Created with CONVERT.DLL (www.crystalimpact.com)'
_audit_creation_date	2015-07-10
_audit_update_record	2015-07-10
_chemical_formula_sum	'C6 H4 Br2.00 N4 Zn'
_chemical_formula_weight	357.310
_cell_length_a	17.0832(1)
_cell_length_b	17.0832
_cell_length_c	17.0832
_cell_angle_alpha	90.000
_cell_angle_beta	90.000
_cell_angle_gamma	90.000
_cell_volume	4985.4(1)
_cell_formula_units_Z	12
_symmetry_int_tables_number	217
_symmetry_space_group_name_H-M	'I -4 3 m'
_symmetry_space_group_name_Hall	'I_-4_2_3'

loop_
_symmetry_equiv_pos_site_id
_symmetry_equiv_pos_as_xyz
1 x,y,z
2 y,-x,-z
3 -x,-y,z
4 -y,x,-z
5 -x,z,-y
6 x,-y,-z
7 -x,-z,y
8 -z,-y,x
9 -x,y,-z
10 z,-y,-x
11 z,x,y
12 y,z,x
13 -y,-z,x
14 z,-x,-y
15 -y,z,-x
16 -z,-x,y
17 -z,x,-y
18 y,-z,-x
19 -y,-x,z
20 y,x,z
21 x,-z,-y
22 x,z,y
23 -z,y,-x
24 z,y,x
25 1/2+x,1/2+y,1/2+z
26 1/2+y,1/2-x,1/2-z
27 1/2-x,1/2-y,1/2+z
28 1/2-y,1/2+x,1/2-z
29 1/2-x,1/2+z,1/2-y
30 1/2+x,1/2-y,1/2-z
31 1/2-x,1/2-z,1/2+y
32 1/2-z,1/2-y,1/2+x
33 1/2-x,1/2+y,1/2-z
34 1/2+z,1/2-y,1/2-x
35 1/2+z,1/2+x,1/2+y
36 1/2+y,1/2+z,1/2+x
37 1/2-y,1/2-z,1/2+x
38 1/2+z,1/2-x,1/2-y
39 1/2-y,1/2+z,1/2-x
40 1/2-z,1/2-x,1/2+y
41 1/2-z,1/2+x,1/2-y
42 1/2+y,1/2-z,1/2-x
43 1/2-y,1/2-x,1/2+z
44 1/2+y,1/2+x,1/2+z
45 1/2+x,1/2-z,1/2-y
46 1/2+x,1/2+z,1/2+y
47 1/2-z,1/2+y,1/2-x
48 1/2+z,1/2+y,1/2+x

loop_
_atom_type_symbol
_atom_type_oxidation_number
_atom_type_radius_bond
Zn	?	1.200
C	?	1.200
Br	?	1.200
N	?	1.200
H	?	1.200


loop_
_atom_site_label
_atom_site_type_symbol
_atom_site_fract_x
_atom_site_fract_y
_atom_site_fract_z
_atom_site_occupancy
_atom_site_symmetry_multiplicity
_atom_site_Wyckoff_symbol
_atom_site_attached_hydrogens
_atom_site_calc_flag
_atom_site_thermal_displace_type
_atom_site_u_iso_or_equiv
ZN1 Zn  0.5000  0.0000  0.7500  1.000 12 d ? d Uiso  0.0544(7)
C1 C  0.3756(3)  0.0079(4)  0.6244(3)  1.000 24 g ? d Uiso  0.0585(4)
C2 C  0.3645(2) -0.0995(2)  0.6916(2)  1.000 48 h ? d Uiso  0.0585(4)
Br Br  0.4246(1)  0.0928(2)  0.5754(1)  0.491(4) 24 g ? d Uiso  0.0585(4)
N1 N  0.4074(2) -0.0322(3)  0.6855(3)  1.000 48 h ? d Uiso  0.0585(4)
H1 H  0.3753(12) -0.1392(10)  0.7301(8)  1.000 48 h ? d Uiso  0.0585(4)
Br' Br  0.4061(1)  0.1085(2)  0.5939(1)  0.509(4) 24 g ? d Uiso  0.0585(4)


loop_
_geom_bond_atom_site_label_1
_geom_bond_atom_site_label_2
_geom_bond_site_symmetry_1
_geom_bond_site_symmetry_2
_geom_bond_distance
_geom_bond_publ_flag
ZN1 N1 . .  2.005(4) no
ZN1 N1 . 3_655  2.005(4) no
ZN1 N1 . 26_556  2.005(4) no
ZN1 N1 . 28_546  2.005(4) no
C1 C2 . .  2.172(7) no
C1 C2 . 23_656  2.172(7) no
C1 Br . .  1.871(7) no
C1 N1 . .  1.362(5) no
C1 N1 . 23_656  1.362(5) no
C1 Br' . .  1.870(7) no
C2 C1 . .  2.172(7) no
C2 C2 . 23_656  1.357(8) no
C2 N1 . .  1.366(5) no
C2 H1 . .  0.962(15) no
C2 H1 . 23_656  2.093(17) no
Br C1 . .  1.871(7) no
Br N1 . .  2.861(5) no
Br N1 . 23_656  2.861(5) no
Br Br' . .  0.522(4) no
N1 ZN1 . .  2.005(4) no
N1 C1 . .  1.362(5) no
N1 C2 . .  1.366(5) no
N1 Br . .  2.861(5) no
N1 H1 . .  2.053(19) no
N1 Br' . .  2.869(5) no
H1 C2 . .  0.962(15) no
H1 C2 . 23_656  2.093(17) no
H1 N1 . .  2.053(19) no
Br' C1 . .  1.870(7) no
Br' Br . .  0.522(4) no
Br' N1 . .  2.869(5) no
Br' N1 . 23_656  2.869(5) no

loop_
_geom_angle_atom_site_label_1
_geom_angle_atom_site_label_2
_geom_angle_atom_site_label_3
_geom_angle_site_symmetry_1
_geom_angle_site_symmetry_2
_geom_angle_site_symmetry_3
_geom_angle
_geom_angle_publ_flag
N1 ZN1 N1 . . 3_655 113.39(25) no
N1 ZN1 N1 . . 26_556 107.55(12) no
N1 ZN1 N1 . . 28_546 107.55(12) no
N1 ZN1 N1 3_655 . 26_556 107.55(12) no
N1 ZN1 N1 3_655 . 28_546 107.55(12) no
N1 ZN1 N1 26_556 . 28_546 113.39(25) no
Br C1 N1 . . . 123.72(28) no
Br C1 N1 . . 23_656 123.71(28) no
Br C1 Br' . . . 16.05(15) no
N1 C1 N1 . . 23_656 110.9(5) no
N1 C1 Br' . . . 124.42(27) no
N1 C1 Br' 23_656 . . 124.42(27) no
C2 C2 N1 23_656 . . 108.97(24) no
C2 C2 H1 23_656 . . 128.2(16) no
N1 C2 H1 . . . 122.8(16) no
C1 Br Br' . . . 81.8(6) no
ZN1 N1 C1 . . . 126.66(31) no
ZN1 N1 C2 . . . 127.74(32) no
C1 N1 C2 . . . 105.6(4) no
C1 Br' Br . . . 82.1(6) no
