##CIF_1.1

data_sm_global
#Used dictionaries
loop_
_audit_conform_dict_name
_audit_conform_dict_version
_audit_conform_dict_location
cif_core.dic 	2.4.2 	.
cif_pd.dic 		1.0.1 	.
cif_sm.dic 		0.1 	'redaktion.landolt-boernstein(at)springer.com'

#About this content and reference
_sm_credits_copyright
;PAULING FILE Multinaries Edition - 2012. SpringerMaterials Release 2014.
http://www.paulingfile.com
Unique LPF ID Number SD0308014
Project Coordinator: Shuichi Iwata
Section-Editors: Karin Cenzual (Crystal Structures), Hiroaki Okamoto (Phase 
Diagrams), Fritz Hulliger (Physical Properties)
(c) Springer & Material Phases Data System (MPDS), Switzerland & National 
Institute for Materials Science (NIMS), Japan 2014.
(Data generated pre-2002: (c) Springer & MPDS & NIMS; 
post-2001: (c) Springer & MPDS)
All Rights Reserved. Version 2014.06.
;

_audit_creation_method
;This data have been compiled from the crystallographic datasheet for 
"CrI3 Crystal Structure" 
taken from SpringerMaterials (sm_isp_sd_0308014).
;

_publ_section_references
;Guen L., All&#x00e9;aume M., Eholi&#x00e9; R., Flahaut J.: <i>Etude du syst&#x00e8;me chrome-iode</i>. Comptes Rendus des Seances de l'Academie des Sciences, Serie C: Sciences Chimiques <b>275</b> (1972) 111-114 (in French).
;

#Phase classification
_sm_phase_labels				'CrI3'
_chemical_name_mineral			''
_sm_chemical_compound_class		'iodide'
_sm_phase_prototype				'CrCl3 '
_sm_pearson_symbol				'hP24'
_symmetry_Int_Tables_number		151
_sm_sample_details
;single crystal (determination of cell parameters)
;
_sm_measurement_details
;Weissenberg photographs (determination of cell parameters), 
X-rays (determination of cell parameters)
;
_sm_interpretation_details
;cell parameters determined and structure type assigned
;

data_sm_isp_SD0308014-standardized_unitcell
#Cell Parameters
_cell_length_a					6.85
_cell_length_b					6.85
_cell_length_c					19.89
_cell_angle_alpha				90
_cell_angle_beta				90
_cell_angle_gamma				120
_sm_length_ratio_ab				1.000
_sm_length_ratio_bc				0.344
_sm_length_ratio_ca				2.904
_cell_volume 					808.3
_symmetry_space_group_name_H-M	'P3112'
_symmetry_Int_Tables_number		151
_cell_formula_units_Z			6
_sm_cell_transformation
;No transformation from published to standardized cell parameters necessary.
;

#Atom Coordinates
loop_
_atom_site_label
_atom_site_type_symbol
_atom_site_Wyckoff_symbol
_sm_site_symmetry
_atom_site_fract_x
_atom_site_fract_y
_atom_site_fract_z
_atom_site_occupancy
_sm_coordination_number
_sm_atomic_environment_type
I1 'I' .6c .1 0.11111 0.22222 0.406 1 ? '?'
I2 'I' .6c .1 0.11111 0.55556 0.26 1 ? '?'
I3 'I' .6c .1 0.44445 0.22222 0.26 1 ? '?'
Cr1 'Cr' .3a ...2 0.44444 0.55556 0.333333333333333 1 ? '?'
Cr2 'Cr' .3a ...2 0.77778 0.22222 0.333333333333333 1 ? '?'

_sm_atom_site_transformation
;No transformation from published to standardized cell parameters necessary.
Atom coordinates assigned by editor.
;

data_sm_isp_SD0308014-published_cell
#Cell Parameters
_cell_length_a					6.85
_cell_length_b					6.85
_cell_length_c					19.89
_cell_angle_alpha				90
_cell_angle_beta				90
_cell_angle_gamma				120
_sm_length_ratio_ab				1.000
_sm_length_ratio_bc				0.344
_sm_length_ratio_ca				2.904
_cell_volume 					808.25
_symmetry_space_group_name_H-M	'P3112'
_symmetry_Int_Tables_number		151
_cell_formula_units_Z			6

#Atom Coordinates
loop_
_atom_site_label
_atom_site_type_symbol
_atom_site_Wyckoff_symbol
_sm_site_symmetry
_atom_site_fract_x
_atom_site_fract_y
_atom_site_fract_z
_atom_site_occupancy
_sm_coordination_number
_sm_atomic_environment_type
? ? ? ? ? ? ? ? ? ?

data_sm_isp_SD0308014-niggli_reduced_cell
#Cell Parameters
_cell_length_a					6.85
_cell_length_b					6.85
_cell_length_c					19.89
_cell_angle_alpha				90
_cell_angle_beta				90
_cell_angle_gamma				120
_sm_length_ratio_ab				1.000
_sm_length_ratio_bc				0.344
_sm_length_ratio_ca				2.904
_cell_volume 					808.25
_symmetry_space_group_name_H-M	''
_symmetry_Int_Tables_number		?
_cell_formula_units_Z			6

#Atom Coordinates
loop_
_atom_site_label
_atom_site_type_symbol
_atom_site_Wyckoff_symbol
_sm_site_symmetry
_atom_site_fract_x
_atom_site_fract_y
_atom_site_fract_z
_atom_site_occupancy
_sm_coordination_number
_sm_atomic_environment_type
? ? ? ? ? ? ? ? ? ?

data_sm_isp_SD0308014-powder_pattern
#Powder Pattern
#Note: Powder patterns are provided using custom cif-fields!
loop_
_sm_powderpattern_unit_published_line
_sm_powderpattern_value_published_line
_sm_powderpattern_unit_computed_line
_sm_powderpattern_value_computed_line
_sm_powderpattern_intensity
_sm_powderpattern_miller_indices_h
_sm_powderpattern_miller_indices_k
_sm_powderpattern_miller_indices_l
_sm_powderpattern_radiation
_sm_powderpattern_remark
'd' 6.60 'd' 0.6600 20 0 0 3 'Cu K&#x03b1;' ''
'd' 3.304 'd' 0.3304 31 0 0 6 'Cu K&#x03b1;' ''
'd' 3.240 'd' 0.3240 79 1 1 2 'Cu K&#x03b1;' ''
'd' 2.821 'd' 0.2821 100 1 1 4 'Cu K&#x03b1;' ''
'd' 2.187 'd' 0.2187 5 1 1 7 'Cu K&#x03b1;' ''
'd' 2.004 'd' 0.2004 35 1 1 8 'Cu K&#x03b1;' ''
'd' 1.977 'd' 0.1977 39 3 0 0 'Cu K&#x03b1;' ''
'd' 1.893 'd' 0.1893 3 3 0 3 'Cu K&#x03b1;' ''
'd' 1.719 'd' 0.1719 9 1 1 10 'Cu K&#x03b1;' ''
'd' 1.689 'd' 0.1689 29 3 0 6 'Cu K&#x03b1;' ''
'd' 1.654 'd' 0.1654 8 2 2 3 'Cu K&#x03b1;' 'additional indices 0 0 12'
'd' 1.618 'd' 0.1618 16 2 2 4 'Cu K&#x03b1;' ''
'd' 1.414 'd' 0.1414 7 2 2 8 'Cu K&#x03b1;' ''
'd' 1.402 'd' 0.1402 2 3 0 10 'Cu K&#x03b1;' ''

